Program Version,EnergyPlus, Version 22.1.0-ed759b17ee, YMD=2024.03.13 10:04,
   ** Severe  ** <root>[Coil:Cooling:DX:SingleSpeed][res ac cooling coil][crankcase_heater_capacity] - Value type "string" for input "Autosize" not permitted by 'type' constraint.
   ** Severe  ** <root>[Coil:Cooling:DX:SingleSpeed][res ac cooling coil][evaporative_condenser_air_flow_rate] - "0" - Expected number greater than 0.000000
   ** Severe  ** <root>[Coil:Cooling:DX:SingleSpeed][res ac cooling coil][evaporative_condenser_air_flow_rate] - Failed to validate against child schema #0.
   ** Severe  ** <root>[Coil:Cooling:DX:SingleSpeed][res ac cooling coil][evaporative_condenser_air_flow_rate] - "0" - Failed to match against any enum values.
   ** Severe  ** <root>[Coil:Cooling:DX:SingleSpeed][res ac cooling coil][evaporative_condenser_air_flow_rate] - Failed to validate against child schema #1.
   ** Severe  ** <root>[Coil:Cooling:DX:SingleSpeed][res ac cooling coil][evaporative_condenser_air_flow_rate] - Failed to validate against any schemas allowed by anyOf constraint.
   ** Severe  ** <root>[Coil:Cooling:DX:SingleSpeed][res ac cooling coil][evaporative_condenser_effectiveness] - Value type "string" for input "AirCooled" not permitted by 'type' constraint.
   ** Severe  ** <root>[Coil:Cooling:DX:SingleSpeed][res ac cooling coil][minimum_outdoor_dry_bulb_temperature_for_compressor_operation] - Value type "string" for input "Cool-PLF-fPLR1" not permitted by 'type' constraint.
   ** Severe  ** <root>[Coil:Cooling:DX:SingleSpeed][res ac cooling coil][ratio_of_initial_moisture_evaporation_rate_and_steady_state_latent_capacity] - "1000" - Expected number less than or equal to 5.000000
   ** Warning ** Version: in IDF="23.2" not the same as expected="22.1"
   **  Fatal  ** Errors occurred on processing input file. Preceding condition(s) cause termination.
   ...Summary of Errors that led to program termination:
   ..... Reference severe error count=9
   ..... Last severe error=<root>[Coil:Cooling:DX:SingleSpeed][res ac cooling coil][ratio_of_initial_moisture_evaporation_rate_and_steady_state_latent_capacity] - "1000" - Expected number less than or equal to 5.000000
   ************* Warning:  Node connection errors not checked - most system input has not been read (see previous warning).
   ************* Fatal error -- final processing.  Program exited before simulations began.  See previous error messages.
   ************* EnergyPlus Warmup Error Summary. During Warmup: 0 Warning; 0 Severe Errors.
   ************* EnergyPlus Sizing Error Summary. During Sizing: 0 Warning; 0 Severe Errors.
   ************* EnergyPlus Terminated--Fatal Error Detected. 1 Warning; 9 Severe Errors; Elapsed Time=00hr 00min  0.05sec
